Version 4
SHEET 1 1000 680
WIRE -96 -16 -240 -16
WIRE 32 -16 -96 -16
WIRE 32 16 32 -16
WIRE 240 48 128 48
WIRE 384 48 320 48
WIRE -240 64 -240 -16
WIRE -96 80 -96 -16
WIRE 208 144 208 128
WIRE 32 160 32 96
WIRE 128 160 128 48
WIRE 128 160 32 160
WIRE 176 160 128 160
WIRE 384 176 384 48
WIRE 384 176 240 176
WIRE -96 192 -96 160
WIRE 176 192 -96 192
WIRE 208 224 208 208
WIRE -96 240 -96 192
WIRE 32 256 32 160
WIRE 32 368 32 336
WIRE -96 464 -96 320
WIRE 32 464 32 448
FLAG -240 144 0
FLAG 32 544 0
FLAG -96 464 0
FLAG -528 320 0
FLAG -416 320 0
FLAG 208 128 V+
FLAG 208 224 V-
FLAG -416 240 V-
FLAG -528 240 V+
SYMBOL OpAmps\\UniversalOpAmp 208 176 R0
SYMATTR InstName U1
SYMBOL voltage 32 448 R0
WINDOW 123 0 0 Left 0
WINDOW 39 0 0 Left 0
SYMATTR InstName V1
SYMATTR Value SINE(0 0.1 3)
SYMBOL voltage -240 48 R0
WINDOW 123 0 0 Left 0
WINDOW 39 0 0 Left 0
SYMATTR InstName V2
SYMATTR Value 2.5
SYMBOL voltage -528 224 R0
WINDOW 123 0 0 Left 0
WINDOW 39 0 0 Left 0
SYMATTR InstName V3
SYMATTR Value 15
SYMBOL voltage -416 224 R0
WINDOW 123 0 0 Left 0
WINDOW 39 0 0 Left 0
SYMATTR InstName V4
SYMATTR Value -15
SYMBOL res -112 64 R0
SYMATTR InstName R1
SYMATTR Value 26k
SYMBOL res -112 224 R0
SYMATTR InstName R2
SYMATTR Value 26k
SYMBOL res 16 352 R0
SYMATTR InstName R3
SYMATTR Value 4.1k
SYMBOL res 16 240 R0
SYMATTR InstName R4
SYMATTR Value 22k
SYMBOL res 16 0 R0
SYMATTR InstName R5
SYMATTR Value 26.1k
SYMBOL res 336 32 R90
WINDOW 0 0 56 VBottom 2
WINDOW 3 32 56 VTop 2
SYMATTR InstName R6
SYMATTR Value 80.6k
TEXT -562 568 Left 2 !.tran 10
TEXT -344 -152 Left 5 ;Error Amplifier Stage
