Version 4
SHEET 1 884 680
WIRE 608 -80 464 -80
WIRE 800 -80 672 -80
WIRE 144 16 32 16
WIRE 208 16 144 16
WIRE 320 16 272 16
WIRE 464 16 464 -80
WIRE 464 16 400 16
WIRE 544 16 464 16
WIRE 656 16 624 16
WIRE 800 16 800 -80
WIRE 800 16 720 16
WIRE 144 112 144 16
WIRE 256 112 144 112
WIRE 464 112 464 16
WIRE 464 112 336 112
WIRE 592 112 464 112
WIRE 32 128 32 96
WIRE 800 128 800 16
WIRE 800 128 656 128
WIRE 592 144 528 144
WIRE 528 176 528 144
FLAG 32 128 0
FLAG -64 400 0
FLAG 48 400 0
FLAG 624 96 V+
FLAG -64 320 V+
FLAG 624 160 V-
FLAG 48 320 V-
FLAG 528 176 0
SYMBOL res 352 96 R90
WINDOW 0 0 56 VBottom 2
WINDOW 3 32 56 VTop 2
SYMATTR InstName R1
SYMATTR Value 160k
SYMBOL res 416 0 R90
WINDOW 0 0 56 VBottom 2
WINDOW 3 32 56 VTop 2
SYMATTR InstName R2
SYMATTR Value 160k
SYMBOL res 640 0 R90
WINDOW 0 0 56 VBottom 2
WINDOW 3 32 56 VTop 2
SYMATTR InstName R3
SYMATTR Value 53k
SYMBOL cap 272 0 R90
WINDOW 0 0 32 VBottom 2
WINDOW 3 43 34 VTop 2
SYMATTR InstName C1
SYMATTR Value 0.1µ
SYMBOL cap 720 0 R90
WINDOW 0 0 32 VBottom 2
WINDOW 3 32 32 VTop 2
SYMATTR InstName C2
SYMATTR Value 10µ
SYMBOL cap 672 -96 R90
WINDOW 0 0 32 VBottom 2
WINDOW 3 32 32 VTop 2
SYMATTR InstName C3
SYMATTR Value 60n
SYMBOL voltage 32 0 R0
WINDOW 123 24 124 Left 2
WINDOW 39 0 0 Left 0
WINDOW 0 3 -1 Left 2
SYMATTR Value2 AC 1
SYMATTR InstName V2
SYMATTR Value 0
SYMBOL OpAmps\\UniversalOpAmp 624 128 R0
SYMATTR InstName U1
SYMBOL voltage -64 304 R0
WINDOW 123 0 0 Left 0
WINDOW 39 0 0 Left 0
SYMATTR InstName V3
SYMATTR Value 15
SYMBOL voltage 48 304 R0
WINDOW 123 0 0 Left 0
WINDOW 39 0 0 Left 0
SYMATTR InstName V4
SYMATTR Value -15
TEXT -55 -208 Left 2 !.ac dec 100 10u 10k
