Version 4
SHEET 1 880 680
WIRE 352 -80 208 -80
WIRE 544 -80 416 -80
WIRE -832 -64 -1040 -64
WIRE -656 -64 -832 -64
WIRE -656 -32 -656 -64
WIRE -288 -16 -320 -16
WIRE -160 -16 -208 -16
WIRE -48 16 -96 16
WIRE 64 16 16 16
WIRE 208 16 208 -80
WIRE 208 16 144 16
WIRE 288 16 208 16
WIRE 400 16 368 16
WIRE 544 16 544 -80
WIRE 544 16 464 16
WIRE -832 32 -832 -64
WIRE -656 80 -656 48
WIRE -400 80 -656 80
WIRE -656 96 -656 80
WIRE -400 96 -400 80
WIRE -320 96 -320 -16
WIRE -320 96 -400 96
WIRE -272 96 -320 96
WIRE -160 112 -160 -16
WIRE -160 112 -208 112
WIRE -96 112 -96 16
WIRE -96 112 -160 112
WIRE 0 112 -96 112
WIRE 208 112 208 16
WIRE 208 112 80 112
WIRE 336 112 208 112
WIRE -272 128 -400 128
WIRE 544 128 544 16
WIRE 544 128 400 128
WIRE 336 144 272 144
WIRE 80 224 0 224
WIRE 272 224 272 144
WIRE 272 224 160 224
WIRE -656 320 -656 176
WIRE 0 336 0 224
WIRE -496 352 -640 352
WIRE 0 368 0 336
WIRE -656 416 -656 384
WIRE -496 416 -496 352
WIRE -1040 448 -1040 -64
WIRE 0 464 0 416
WIRE -1040 544 -1040 528
WIRE -400 544 -400 128
WIRE -400 544 -1040 544
WIRE -1040 656 -1040 624
FLAG 368 96 V+
FLAG 368 160 V-
FLAG 0 464 0
FLAG -1040 656 0
FLAG -1312 160 0
FLAG -1184 160 0
FLAG -832 112 0
FLAG 0 224 Vtempset
FLAG -1312 80 V+
FLAG -1184 80 V-
FLAG -656 416 0
FLAG -240 80 V+
FLAG -240 144 V-
FLAG -496 496 0
SYMBOL res 96 96 R90
WINDOW 0 0 56 VBottom 2
WINDOW 3 32 56 VTop 2
SYMATTR InstName R1
SYMATTR Value 160k
SYMBOL res 160 0 R90
WINDOW 0 0 56 VBottom 2
WINDOW 3 32 56 VTop 2
SYMATTR InstName R2
SYMATTR Value 160k
SYMBOL res 384 0 R90
WINDOW 0 0 56 VBottom 2
WINDOW 3 32 56 VTop 2
SYMATTR InstName R3
SYMATTR Value 53k
SYMBOL cap 16 0 R90
WINDOW 0 0 32 VBottom 2
WINDOW 3 43 34 VTop 2
SYMATTR InstName C1
SYMATTR Value 0.1µ
SYMBOL cap 464 0 R90
WINDOW 0 0 32 VBottom 2
WINDOW 3 32 32 VTop 2
SYMATTR InstName C2
SYMATTR Value 10µ
SYMBOL cap 416 -96 R90
WINDOW 0 0 32 VBottom 2
WINDOW 3 32 32 VTop 2
SYMATTR InstName C3
SYMATTR Value 60n
SYMBOL OpAmps\\UniversalOpAmp 368 128 R0
SYMATTR InstName U1
SYMBOL voltage 0 320 R0
WINDOW 123 0 0 Left 0
WINDOW 39 0 0 Left 0
SYMATTR InstName V1
SYMATTR Value 1.25
SYMBOL res 176 208 R90
WINDOW 0 0 56 VBottom 2
WINDOW 3 32 56 VTop 2
SYMATTR InstName R4
SYMATTR Value 1k
SYMBOL res -1056 528 R0
SYMATTR InstName R5
SYMATTR Value 20k
SYMBOL res -1056 432 R0
SYMATTR InstName R6
SYMATTR Value 20k
SYMBOL voltage -1312 64 R0
WINDOW 123 0 0 Left 0
WINDOW 39 0 0 Left 0
SYMATTR InstName V2
SYMATTR Value 15
SYMBOL voltage -1184 64 R0
WINDOW 123 0 0 Left 0
WINDOW 39 0 0 Left 0
SYMATTR InstName V3
SYMATTR Value -15
SYMBOL voltage -832 16 R0
SYMATTR InstName V4
SYMATTR Value 2.5
SYMBOL res -672 -48 R0
SYMATTR InstName R7
SYMATTR Value 26.1k
SYMBOL res -672 80 R0
SYMATTR InstName R8
SYMATTR Value 22k
SYMBOL NTCLE203E3103_B0 -656 224 R270
SYMATTR InstName U2
SYMATTR Value NTCLE213E3103_HB0
SYMBOL OpAmps\\opamp2 -240 48 R0
SYMATTR InstName U3
SYMBOL res -192 -32 R90
WINDOW 0 0 56 VBottom 2
WINDOW 3 32 56 VTop 2
SYMATTR InstName R9
SYMATTR Value 80.6k
SYMBOL voltage -496 400 R0
WINDOW 123 0 0 Left 0
WINDOW 39 0 0 Left 0
SYMATTR InstName V5
SYMATTR Value SINE(46 10 1 3)
TEXT 152 600 Left 2 !.tran 10 startup uic
